  55 
# Cu55 
 Cu        10.0006224172       10.0010174132        9.9996403819
 Cu        11.1463492590       12.0854102132       10.6305435274
 Cu        12.3280805094        9.8059336833       10.7777154914
 Cu        11.7402050035       10.8106879754        8.4760062152
 Cu        11.3694121725        8.2848938959        8.9235411898
 Cu         9.4493027738       11.9727121693        8.6418554487
 Cu        10.4048648535       10.3515191839       12.4017627330
 Cu         9.5952378540        9.6487645756        7.5981692690
 Cu        10.5505980644        8.0277997966       11.3578210968
 Cu         8.6306521892       11.7157816495       11.0764041898
 Cu         8.2599877494        9.1912441798       11.5238414185
 Cu         7.6720621407       10.1942717288        9.2222482411
 Cu         8.8537850991        7.9156068149        9.3695915249
 Cu        12.2533589509       14.1069109690       11.2296692182
 Cu        14.5763390064        9.5951421636       11.5206366016
 Cu        13.4378683596       11.5905171394        6.9944167112
 Cu        12.7065327594        6.6255789752        7.8705247745
 Cu         8.9246048140       13.9001234436        7.3645696126
 Cu        10.9925652835        8.3435803056       13.8041837228
 Cu         9.2231781201        9.2906559426        5.2840316020
 Cu        11.0753328927        6.1001430419       12.6353173759
 Cu         7.2933744604       13.3746068162       12.1293897780
 Cu         6.5623301392        8.4096837533       13.0053754390
 Cu         5.4237122249       10.4048547548        8.4793526551
 Cu         7.7468887803        5.8932869283        8.7705132084
 Cu        13.5126764125       11.9032779830       11.4419979389
 Cu        10.6061297334       14.1079473109        9.2859729937
 Cu        11.5861211484       12.4760721822       13.0674010337
 Cu         9.7546890004       13.8292925726       11.7443407048
 Cu        14.1155224995       10.6262138113        9.2331683564
 Cu        13.7435401210        8.0459921165        9.6843753164
 Cu        10.7767973181       10.7093756382       14.7159654651
 Cu        12.7682115942       10.1785859540       13.2211042277
 Cu        12.9287319935       12.9252718809        9.0803169827
 Cu        13.1493639376        9.0779906032        7.3633442716
 Cu        11.2178155595       12.8369702077        7.0796332139
 Cu        11.3625675243       10.4744156480        6.0334892289
 Cu        10.9913679384        7.8943088927        6.4799346194
 Cu        12.9129982852        7.8060530320       12.1793061036
 Cu         9.0074092637       11.6564762011        6.1957411681
 Cu         6.4873820341        8.0967592661        8.5580269284
 Cu        11.9591394526        6.2624534694       10.2627149923
 Cu         8.4139135525        7.5240121235        6.9326959464
 Cu        10.2452807657        6.1710892956        8.2557054251
 Cu         5.8844887758        9.3738301423       10.7667733977
 Cu         6.2564608234       11.9540857555       10.3155031702
 Cu         7.2318000759        9.8214513569        6.7788892960
 Cu         7.0869256230       12.1940142170        7.8206161990
 Cu         7.0716132719        7.0751615907       10.9196797562
 Cu         6.8504931120       10.9222629792       12.6367280226
 Cu         9.3944215401        5.8922193936       10.7137945003
 Cu         8.6374749612        9.5256542631       13.9665359232
 Cu         9.0086091527       12.1057751496       13.5200494095
 Cu         8.0408556952       13.7376901773        9.7372096913
 Cu         8.7821836076        7.1636237324       12.9200000777
